/*--------------------------------*- C++ -*----------------------------------*\
| =========                 |                                                 |
| \\      /  F ield         | OpenFOAM: The Open Source CFD Toolbox           |
|  \\    /   O peration     | Version:  v2206                                 |
|   \\  /    A nd           | Website:  www.openfoam.com                      |
|    \\/     M anipulation  |                                                 |
\*---------------------------------------------------------------------------*/
FoamFile
{
    version     2.0;
    format      ascii;
    class       dictionary;
    object      fvSolution;
}
// * * * * * * * * * * * * * * * * * * * * * * * * * * * * * * * * * * * * * //

solvers
{
    p_rgh
    {
        solver          GAMG;
        smoother        DICGaussSeidel;
        tolerance       1e-07;
        relTol          0.05;
    }

    alpha.water
    {
        nAlphaCorr      1;
        nAlphaSubCycles 2;
        cAlpha          1;
    }

    "pcorr.*"
    {
        $p_rgh
        tolerance       1e-10;
        relTol          0;
    }

    p_rghFinal
    {
        $p_rgh;
        relTol          0;
    }

    "(U|k|epsilon)"
    {
        solver          smoothSolver;
        smoother        symGaussSeidel;
        tolerance       1e-8;
        relTol          0.1;
    }

    "(U|k|epsilon)Final"
    {
        $U;
        relTol          0;
    }
}

PIMPLE
{
    momentumPredictor no;
    nCorrectors     1;
    nNonOrthogonalCorrectors 0;
    nOuterCorrectors    50;

    residualControl
        {
            "(U|k|epsilon)"
            {
                relTol          0;
                tolerance       1e-5;
            }

            "(p_rgh)"
            {
                relTol          0;
                tolerance       1e-4;
            }
        }

}


// ************************************************************************* //
